21

C      -2.034994202410633     -2.138322263846575      1.990574843172175
C      -1.027964776813406     -1.041309490733292      1.836519004785061
O      -0.291633900667831     -0.625815846778364      2.680323802020511
O      -1.085609172597016     -0.526533539096853      0.566233796850450
C      -0.170688217723626      0.446604901169217      0.221648943961195
C      -0.680753282747326      1.672055741380992     -0.176670412629842
C       0.180508242542495      2.695289696878612     -0.531860649241256
C       1.553687823680406      2.494283823545050     -0.498803018095138
C       2.055902492239800      1.261469851638517     -0.124587768144357
C       1.204998038426762      0.211419979250521      0.220032836180280
C       1.734273989092264     -1.144048209237169      0.535023015061569
O       1.107734178381894     -2.170202880604895      0.458061168499941
O       3.029118289281447     -1.132786442344653      0.905885573668487
H      -1.921265913745807     -2.593747567434016      2.968183801541553
H      -1.906744220458052     -2.880843351264006      1.206911915873051
H      -3.035944701638220     -1.724008029932235      1.884134752780390
H      -1.750892071340707      1.810784011716534     -0.194768395058791
H      -0.226622554558329      3.650413558020328     -0.832517077454185
H       2.228490950372805      3.294077035167022     -0.767283710170505
H       3.121918218730836      1.098436536246397     -0.096717299208898
H       3.249668335820565     -2.048502080909575      1.117413509152809
